20

Au -6.104596880118715 -1.9019606502677977 -0.43783308359100914
Au 0.21287485354369728 1.4278732131048208 -4.355001970108016
Au -3.357552801280959 0.95195925861338 4.6189046537953296
Au -4.307061794719559 -7.172225170644931 8.849162939612018
Au 5.944340544659067 -5.79501947920261 2.2094685214764667
Au 5.638388781040517 -1.456564739625736 1.8841125573203552
Au -6.19442900372073 4.219735650565031 3.7991453548364866
Au 3.61669640122763 7.727581001294853 6.490960352341682
Au -1.794649028461433 8.127124434832217 -1.9409752819927535
Au -6.151978040747279 9.41323471747488 -6.245941970256306
Au 3.357229792000636 8.549704014238896 4.0026991022330485
Au -7.184199666600497 -6.075741706024306 2.018953083125556
Au -5.7760196017324335 1.2761188346006378 7.853748487968755
Au -8.41984025785638 -3.3890409842736027 -3.788357919604337
Au -1.9889665636381846 -7.817484054722571 -2.5355418103359995
Au -2.90462558179782 0.6216995160710965 3.135010327375614
Au -0.660647895877279 5.706745241195446 -9.283007621881996
Au -3.4078978959441866 -6.764445866692499 5.957448893635261
Au 2.4957220982657056 5.985610404510904 -6.962961761486075
Au 0.8633225537776816 2.578597186684391 6.042553346433163
